Version 4
SHEET 1 1860 680
WIRE 304 -320 304 -368
WIRE 416 -320 416 -368
WIRE 304 -208 304 -240
WIRE 368 -208 304 -208
WIRE 416 -208 416 -240
WIRE 416 -208 368 -208
WIRE 368 -192 368 -208
WIRE 256 -80 224 -80
WIRE 368 -80 336 -80
WIRE 528 -80 512 -80
WIRE 624 -80 608 -80
WIRE -224 -64 -480 -64
WIRE -144 -64 -224 -64
WIRE -32 -64 -64 -64
WIRE 224 -48 224 -80
WIRE 224 -48 160 -48
WIRE 368 -32 368 -80
WIRE 384 -32 368 -32
WIRE 512 -32 512 -80
WIRE 512 -32 496 -32
WIRE 624 -32 624 -80
WIRE 656 -32 624 -32
WIRE 224 0 224 -48
WIRE 256 0 224 0
WIRE 368 0 368 -32
WIRE 368 0 320 0
WIRE 512 0 512 -32
WIRE 544 0 512 0
WIRE 624 0 624 -32
WIRE 624 0 608 0
WIRE 1008 16 896 16
WIRE -480 96 -480 -64
WIRE 496 112 496 -32
WIRE 528 112 496 112
WIRE -160 144 -160 96
WIRE -224 160 -224 -64
WIRE -192 160 -224 160
WIRE 224 160 224 112
WIRE -32 176 -32 -64
WIRE -32 176 -128 176
WIRE 64 176 -32 176
WIRE 160 176 160 -48
WIRE 160 176 144 176
WIRE 192 176 160 176
WIRE 576 176 576 128
WIRE -480 192 -480 160
WIRE -336 192 -480 192
WIRE -224 192 -256 192
WIRE -192 192 -224 192
WIRE 384 192 384 -32
WIRE 384 192 256 192
WIRE 432 192 384 192
WIRE 528 192 528 112
WIRE 528 192 512 192
WIRE 544 192 528 192
WIRE 928 192 928 144
WIRE 192 208 128 208
WIRE 656 208 656 -32
WIRE 656 208 608 208
WIRE 720 208 656 208
WIRE 816 208 816 16
WIRE 816 208 800 208
WIRE 896 208 816 208
WIRE 544 224 496 224
WIRE 1008 224 1008 16
WIRE 1008 224 960 224
WIRE 896 240 832 240
WIRE -480 256 -480 192
WIRE -160 256 -160 208
WIRE 128 256 128 208
WIRE 224 272 224 224
WIRE 496 272 496 224
WIRE 832 272 832 240
WIRE 576 288 576 240
WIRE 928 304 928 256
WIRE -224 320 -224 192
WIRE -32 320 -32 176
WIRE -32 320 -144 320
WIRE 128 368 128 336
WIRE 832 384 832 352
WIRE 496 400 496 352
FLAG -160 96 V+
FLAG 224 112 V+
FLAG 576 128 V+
FLAG 304 -368 V+
FLAG -160 256 V-
FLAG 224 272 V-
FLAG 576 288 V-
FLAG 416 -368 V-
FLAG 368 -192 0
FLAG 928 144 V+
FLAG 928 304 V-
FLAG -480 256 0
FLAG 128 368 0
FLAG 496 400 0
FLAG 832 384 0
SYMBOL voltage 304 -336 R0
WINDOW 123 0 0 Left 0
WINDOW 39 0 0 Left 0
SYMATTR InstName V1
SYMATTR Value 5
SYMBOL voltage 416 -336 R0
WINDOW 123 0 0 Left 0
WINDOW 39 0 0 Left 0
SYMATTR InstName V2
SYMATTR Value -5
SYMBOL res -128 304 R90
WINDOW 0 0 56 VBottom 2
WINDOW 3 32 56 VTop 2
SYMATTR InstName R1
SYMATTR Value 100k
SYMBOL res -240 176 R90
WINDOW 0 0 56 VBottom 2
WINDOW 3 32 56 VTop 2
SYMATTR InstName R2
SYMATTR Value 27k
SYMBOL res -48 -80 R90
WINDOW 0 0 56 VBottom 2
WINDOW 3 32 56 VTop 2
SYMATTR InstName R3
SYMATTR Value 100k
SYMBOL cap -496 96 R0
SYMATTR InstName C1
SYMATTR Value 0.01µ
SYMBOL res 112 240 R0
SYMATTR InstName R4
SYMATTR Value 10k
SYMBOL res 160 160 R90
WINDOW 0 0 56 VBottom 2
WINDOW 3 32 56 VTop 2
SYMATTR InstName R5
SYMATTR Value 10k
SYMBOL res 352 -96 R90
WINDOW 0 0 56 VBottom 2
WINDOW 3 32 56 VTop 2
SYMATTR InstName R6
SYMATTR Value 100k
SYMBOL cap 320 -16 R90
WINDOW 0 0 32 VBottom 2
WINDOW 3 32 32 VTop 2
SYMATTR InstName C2
SYMATTR Value 0.1µ
SYMBOL res 528 176 R90
WINDOW 0 0 56 VBottom 2
WINDOW 3 32 56 VTop 2
SYMATTR InstName R7
SYMATTR Value 100k
SYMBOL res 624 -96 R90
WINDOW 0 0 56 VBottom 2
WINDOW 3 32 56 VTop 2
SYMATTR InstName R8
SYMATTR Value 100k
SYMBOL res 816 192 R90
WINDOW 0 0 56 VBottom 2
WINDOW 3 32 56 VTop 2
SYMATTR InstName R9
SYMATTR Value 10k
SYMBOL res 512 368 R180
WINDOW 0 36 76 Left 2
WINDOW 3 36 40 Left 2
SYMATTR InstName R10
SYMATTR Value 10k
SYMBOL cap 544 -16 M90
WINDOW 0 0 32 VBottom 2
WINDOW 3 32 32 VTop 2
SYMATTR InstName C3
SYMATTR Value 1µ
SYMBOL res 816 256 R0
SYMATTR InstName R11
SYMATTR Value 10k
SYMBOL res 912 0 R90
WINDOW 0 0 56 VBottom 2
WINDOW 3 32 56 VTop 2
SYMATTR InstName R12
SYMATTR Value 27k
SYMBOL OpAmps\\LM741 -160 112 R0
SYMATTR InstName U1
SYMBOL OpAmps\\LM741 224 128 R0
SYMATTR InstName U2
SYMBOL OpAmps\\LM741 576 144 R0
SYMATTR InstName U3
SYMBOL OpAmps\\LM741 928 160 R0
SYMATTR InstName U4
TEXT -64 -96 Left 2 ;Square Wave
TEXT 336 -112 Left 2 ;Triangle Wave
TEXT 960 -8 Left 2 ;Sine Wave
TEXT -504 424 Left 2 !.tran 10m
